/*--------------------------------*- C++ -*----------------------------------*\
  =========                 |
  \\      /  F ield         | OpenFOAM: The Open Source CFD Toolbox
   \\    /   O peration     | Website:  https://openfoam.org
    \\  /    A nd           | Version:  9
     \\/     M anipulation  |
\*---------------------------------------------------------------------------*/
FoamFile
{
    format      binary;
    class       polyBoundaryMesh;
    location    "constant/polyMesh";
    object      boundary;
}
// * * * * * * * * * * * * * * * * * * * * * * * * * * * * * * * * * * * * * //

7
(
    front
    {
        type            empty;
        physicalType    patch;
        nFaces          29454;
        startFace       43868;
    }
    back
    {
        type            empty;
        physicalType    patch;
        nFaces          29454;
        startFace       73322;
    }
    exit
    {
        type            patch;
        physicalType    patch;
        nFaces          50;
        startFace       102776;
    }
    bottom
    {
        type            patch;
        physicalType    patch;
        nFaces          50;
        startFace       102826;
    }
    inlet
    {
        type            patch;
        physicalType    patch;
        nFaces          50;
        startFace       102876;
    }
    top
    {
        type            patch;
        physicalType    patch;
        nFaces          50;
        startFace       102926;
    }
    aerofoil
    {
        type            wall;
        physicalType    patch;
        nFaces          426;
        startFace       102976;
    }
)

// ************************************************************************* //
